 swatplus_tordera_1        SWAT+ Jul 2 2024        MODULAR Rev 2024.61.0.1                                
                                        zmx       usle_k       sumfc       sumul      usle_p     usle_ls        esco        epco     cn3_swf       perco     latq_co   tiledrain 
 sname           hydgrp                 (mm)                    (mm)        (mm)                                                                                     0=notile;1=tile;
TORD6           C                   350.0000      0.0000     70.0000    149.9057      1.0000      0.9761      0.9500      0.5000      0.9500      0.5000      0.0100           0
TORD6           C                   350.0000      0.0000     70.0000    149.9057      1.0000     12.1297      0.9500      0.5000      0.9500      0.5000      0.0100           0
TORD6           C                   350.0000      0.0000     70.0000    149.9057      1.0000      5.4775      0.9500      0.5000      0.9500      0.5000      0.0100           0
TORD6           C                   350.0000      0.0000     70.0000    149.9057      1.0000      2.8948      0.9500      0.5000      0.9500      0.5000      0.0100           0
TORD6           C                   350.0000      0.0000     70.0000    149.9057      1.0000      0.5398      0.9500      0.5000      0.9500      0.5000      0.0100           0
TORD2           A                   250.1000      0.0000     50.0200    119.6233      1.0000      0.4103      0.9500      0.5000      0.9500      0.9000      0.0100           0
TORD2           A                   250.1000      0.0000     50.0200    119.6233      1.0000      5.0420      0.9500      0.5000      0.9500      0.9000      0.0100           0
TORD2           A                   250.1000      0.0000     50.0200    119.6233      1.0000      2.6038      0.9500      0.5000      0.9500      0.9000      0.0100           0
TORD2           A                   250.1000      0.0000     50.0200    119.6233      1.0000      9.9825      0.9500      0.5000      0.9500      0.9000      0.0100           0
TORD2           A                   250.1000      0.0000     50.0200    119.6233      1.0000      1.1028      0.9500      0.5000      0.9500      0.9000      0.0100           0
TORD7           A                  1200.0000      0.0000    240.0000    543.9623      1.0000      0.2992      0.9500      0.5000      0.9500      0.9000      0.0100           0
TORD7           A                  1200.0000      0.0000    240.0000    543.9623      1.0000      2.2723      0.9500      0.5000      0.9500      0.9000      0.0100           0
TORD7           A                  1200.0000      0.0000    240.0000    543.9623      1.0000      1.0410      0.9500      0.5000      0.9500      0.9000      0.0100           0
TORD4           C                  1200.0000      0.0000    180.0000    363.9623      1.0000      2.3017      0.9500      0.5000      0.9500      0.5000      0.0100           0
TORD4           C                  1200.0000      0.0000    180.0000    363.9623      1.0000      1.0631      0.9500      0.5000      0.9500      0.5000      0.0100           0
TORD4           C                  1200.0000      0.0000    180.0000    363.9623      1.0000      0.9522      0.9500      0.5000      0.9500      0.5000      0.0100           0
TORD6           C                   350.0000      0.0000     70.0000    149.9057      1.0000      2.9749      0.9500      0.5000      0.9500      0.5000      0.0100           0
TORD6           C                   350.0000      0.0000     70.0000    149.9057      1.0000      5.6288      0.9500      0.5000      0.9500      0.5000      0.0100           0
TORD6           C                   350.0000      0.0000     70.0000    149.9057      1.0000     11.3615      0.9500      0.5000      0.9500      0.5000      0.0100           0
TORD6           C                   350.0000      0.0000     70.0000    149.9057      1.0000      1.2955      0.9500      0.5000      0.9500      0.5000      0.0100           0
TORD6           C                   350.0000      0.0000     70.0000    149.9057      1.0000      0.3937      0.9500      0.5000      0.9500      0.5000      0.0100           0
TORD2           A                   250.1000      0.0000     50.0200    119.6233      1.0000      9.1986      0.9500      0.5000      0.9500      0.9000      0.0100           0
TORD2           A                   250.1000      0.0000     50.0200    119.6233      1.0000      5.2686      0.9500      0.5000      0.9500      0.9000      0.0100           0
TORD2           A                   250.1000      0.0000     50.0200    119.6233      1.0000      1.2214      0.9500      0.5000      0.9500      0.9000      0.0100           0
TORD2           A                   250.1000      0.0000     50.0200    119.6233      1.0000      2.8605      0.9500      0.5000      0.9500      0.9000      0.0100           0
TORD2           A                   250.1000      0.0000     50.0200    119.6233      1.0000      0.4941      0.9500      0.5000      0.9500      0.9000      0.0100           0
TORD7           A                  1200.0000      0.0000    240.0000    543.9623      1.0000      0.8799      0.9500      0.5000      0.9500      0.9000      0.0100           0
TORD7           A                  1200.0000      0.0000    240.0000    543.9623      1.0000      0.3834      0.9500      0.5000      0.9500      0.9000      0.0100           0
TORD7           A                  1200.0000      0.0000    240.0000    543.9623      1.0000      9.3320      0.9500      0.5000      0.9500      0.9000      0.0100           0
TORD7           A                  1200.0000      0.0000    240.0000    543.9623      1.0000      3.1501      0.9500      0.5000      0.9500      0.9000      0.0100           0
TORD7           A                  1200.0000      0.0000    240.0000    543.9623      1.0000      4.5994      0.9500      0.5000      0.9500      0.9000      0.0100           0
TORD4           C                  1200.0000      0.0000    180.0000    363.9623      1.0000      8.9867      0.9500      0.5000      0.9500      0.5000      0.0100           0
TORD4           C                  1200.0000      0.0000    180.0000    363.9623      1.0000      2.5465      0.9500      0.5000      0.9500      0.5000      0.0100           0
TORD4           C                  1200.0000      0.0000    180.0000    363.9623      1.0000      1.1940      0.9500      0.5000      0.9500      0.5000      0.0100           0
TORD4           C                  1200.0000      0.0000    180.0000    363.9623      1.0000      0.7483      0.9500      0.5000      0.9500      0.5000      0.0100           0
TORD6           C                   350.0000      0.0000     70.0000    149.9057      1.0000      5.2832      0.9500      0.5000      0.9500      0.5000      0.0100           0
TORD6           C                   350.0000      0.0000     70.0000    149.9057      1.0000     10.7343      0.9500      0.5000      0.9500      0.5000      0.0100           0
TORD6           C                   350.0000      0.0000     70.0000    149.9057      1.0000      2.7430      0.9500      0.5000      0.9500      0.5000      0.0100           0
TORD6           C                   350.0000      0.0000     70.0000    149.9057      1.0000      0.6762      0.9500      0.5000      0.9500      0.5000      0.0100           0
TORD6           C                   350.0000      0.0000     70.0000    149.9057      1.0000      0.7279      0.9500      0.5000      0.9500      0.5000      0.0100           0
TORD2           A                   250.1000      0.0000     50.0200    119.6233      1.0000      5.2113      0.9500      0.5000      0.9500      0.9000      0.0100           0
TORD2           A                   250.1000      0.0000     50.0200    119.6233      1.0000      8.5275      0.9500      0.5000      0.9500      0.9000      0.0100           0
TORD2           A                   250.1000      0.0000     50.0200    119.6233      1.0000      2.9074      0.9500      0.5000      0.9500      0.9000      0.0100           0
TORD2           A                   250.1000      0.0000     50.0200    119.6233      1.0000      1.1954      0.9500      0.5000      0.9500      0.9000      0.0100           0
TORD2           A                   250.1000      0.0000     50.0200    119.6233      1.0000      0.3773      0.9500      0.5000      0.9500      0.9000      0.0100           0
TORD7           A                  1200.0000      0.0000    240.0000    543.9623      1.0000      1.0964      0.9500      0.5000      0.9500      0.9000      0.0100           0
TORD7           A                  1200.0000      0.0000    240.0000    543.9623      1.0000      0.5240      0.9500      0.5000      0.9500      0.9000      0.0100           0
TORD7           A                  1200.0000      0.0000    240.0000    543.9623      1.0000      5.2904      0.9500      0.5000      0.9500      0.9000      0.0100           0
TORD7           A                  1200.0000      0.0000    240.0000    543.9623      1.0000      7.8955      0.9500      0.5000      0.9500      0.9000      0.0100           0
TORD7           A                  1200.0000      0.0000    240.0000    543.9623      1.0000      2.7134      0.9500      0.5000      0.9500      0.9000      0.0100           0
TORD4           C                  1200.0000      0.0000    180.0000    363.9623      1.0000      1.1323      0.9500      0.5000      0.9500      0.5000      0.0100           0
TORD4           C                  1200.0000      0.0000    180.0000    363.9623      1.0000      2.4403      0.9500      0.5000      0.9500      0.5000      0.0100           0
TORD4           C                  1200.0000      0.0000    180.0000    363.9623      1.0000      0.7525      0.9500      0.5000      0.9500      0.5000      0.0100           0
TORD6           C                   350.0000      0.0000     70.0000    149.9057      1.0000      2.9753      0.9500      0.5000      0.9500      0.5000      0.0100           0
TORD6           C                   350.0000      0.0000     70.0000    149.9057      1.0000      1.2879      0.9500      0.5000      0.9500      0.5000      0.0100           0
TORD6           C                   350.0000      0.0000     70.0000    149.9057      1.0000      0.8358      0.9500      0.5000      0.9500      0.5000      0.0100           0
TORD6           C                   350.0000      0.0000     70.0000    149.9057      1.0000      4.8551      0.9500      0.5000      0.9500      0.5000      0.0100           0
TORD2           A                   250.1000      0.0000     50.0200    119.6233      1.0000      1.0658      0.9500      0.5000      0.9500      0.9000      0.0100           0
TORD2           A                   250.1000      0.0000     50.0200    119.6233      1.0000      2.7251      0.9500      0.5000      0.9500      0.9000      0.0100           0
TORD2           A                   250.1000      0.0000     50.0200    119.6233      1.0000      7.7437      0.9500      0.5000      0.9500      0.9000      0.0100           0
TORD2           A                   250.1000      0.0000     50.0200    119.6233      1.0000      4.8288      0.9500      0.5000      0.9500      0.9000      0.0100           0
TORD2           A                   250.1000      0.0000     50.0200    119.6233      1.0000      0.4185      0.9500      0.5000      0.9500      0.9000      0.0100           0
TORD7           A                  1200.0000      0.0000    240.0000    543.9623      1.0000      0.1052      0.9500      0.5000      0.9500      0.9000      0.0100           0
TORD7           A                  1200.0000      0.0000    240.0000    543.9623      1.0000      0.9495      0.9500      0.5000      0.9500      0.9000      0.0100           0
TORD4           C                  1200.0000      0.0000    180.0000    363.9623      1.0000      2.4082      0.9500      0.5000      0.9500      0.5000      0.0100           0
TORD4           C                  1200.0000      0.0000    180.0000    363.9623      1.0000      1.1801      0.9500      0.5000      0.9500      0.5000      0.0100           0
TORD6           C                   350.0000      0.0000     70.0000    149.9057      1.0000      4.6547      0.9500      0.5000      0.9500      0.5000      0.0100           0
TORD6           C                   350.0000      0.0000     70.0000    149.9057      1.0000      7.6460      0.9500      0.5000      0.9500      0.5000      0.0100           0
TORD6           C                   350.0000      0.0000     70.0000    149.9057      1.0000      3.4813      0.9500      0.5000      0.9500      0.5000      0.0100           0
TORD6           C                   350.0000      0.0000     70.0000    149.9057      1.0000      1.3409      0.9500      0.5000      0.9500      0.5000      0.0100           0
TORD2           A                   250.1000      0.0000     50.0200    119.6233      1.0000      0.6366      0.9500      0.5000      0.9500      0.9000      0.0100           0
TORD2           A                   250.1000      0.0000     50.0200    119.6233      1.0000      1.1894      0.9500      0.5000      0.9500      0.9000      0.0100           0
TORD2           A                   250.1000      0.0000     50.0200    119.6233      1.0000      2.8700      0.9500      0.5000      0.9500      0.9000      0.0100           0
TORD2           A                   250.1000      0.0000     50.0200    119.6233      1.0000      4.9480      0.9500      0.5000      0.9500      0.9000      0.0100           0
TORD2           A                   250.1000      0.0000     50.0200    119.6233      1.0000      7.3747      0.9500      0.5000      0.9500      0.9000      0.0100           0
TORD7           A                  1200.0000      0.0000    240.0000    543.9623      1.0000      2.8651      0.9500      0.5000      0.9500      0.9000      0.0100           0
TORD7           A                  1200.0000      0.0000    240.0000    543.9623      1.0000      1.0617      0.9500      0.5000      0.9500      0.9000      0.0100           0
TORD7           A                  1200.0000      0.0000    240.0000    543.9623      1.0000      0.2526      0.9500      0.5000      0.9500      0.9000      0.0100           0
TORD4           C                  1200.0000      0.0000    180.0000    363.9623      1.0000      2.5685      0.9500      0.5000      0.9500      0.5000      0.0100           0
TORD4           C                  1200.0000      0.0000    180.0000    363.9623      1.0000      1.0145      0.9500      0.5000      0.9500      0.5000      0.0100           0
TORD4           C                  1200.0000      0.0000    180.0000    363.9623      1.0000      0.8935      0.9500      0.5000      0.9500      0.5000      0.0100           0
TORD4           C                  1200.0000      0.0000    180.0000    363.9623      1.0000      4.4588      0.9500      0.5000      0.9500      0.5000      0.0100           0
TORD2           A                   250.1000      0.0000     50.0200    119.6233      1.0000      0.4904      0.9500      0.5000      0.9500      0.9000      0.0100           0
TORD2           A                   250.1000      0.0000     50.0200    119.6233      1.0000      2.7227      0.9500      0.5000      0.9500      0.9000      0.0100           0
TORD2           A                   250.1000      0.0000     50.0200    119.6233      1.0000      1.4617      0.9500      0.5000      0.9500      0.9000      0.0100           0
TORD2           A                   250.1000      0.0000     50.0200    119.6233      1.0000      4.6063      0.9500      0.5000      0.9500      0.9000      0.0100           0
TORD2           A                   250.1000      0.0000     50.0200    119.6233      1.0000      7.9576      0.9500      0.5000      0.9500      0.9000      0.0100           0
TORD7           A                  1200.0000      0.0000    240.0000    543.9623      1.0000      5.9045      0.9500      0.5000      0.9500      0.9000      0.0100           0
TORD7           A                  1200.0000      0.0000    240.0000    543.9623      1.0000      7.7388      0.9500      0.5000      0.9500      0.9000      0.0100           0
TORD7           A                  1200.0000      0.0000    240.0000    543.9623      1.0000      1.1880      0.9500      0.5000      0.9500      0.9000      0.0100           0
TORD4           C                  1200.0000      0.0000    180.0000    363.9623      1.0000      0.9288      0.9500      0.5000      0.9500      0.5000      0.0100           0
TORD4           C                  1200.0000      0.0000    180.0000    363.9623      1.0000      4.1245      0.9500      0.5000      0.9500      0.5000      0.0100           0
TORD4           C                  1200.0000      0.0000    180.0000    363.9623      1.0000      2.4355      0.9500      0.5000      0.9500      0.5000      0.0100           0
TORD4           C                  1200.0000      0.0000    180.0000    363.9623      1.0000      0.8551      0.9500      0.5000      0.9500      0.5000      0.0100           0
TORD2           A                   250.1000      0.0000     50.0200    119.6233      1.0000      4.2217      0.9500      0.5000      0.9500      0.9000      0.0100           0
TORD2           A                   250.1000      0.0000     50.0200    119.6233      1.0000      3.0655      0.9500      0.5000      0.9500      0.9000      0.0100           0
TORD2           A                   250.1000      0.0000     50.0200    119.6233      1.0000      1.4502      0.9500      0.5000      0.9500      0.9000      0.0100           0
TORD2           A                   250.1000      0.0000     50.0200    119.6233      1.0000      0.2914      0.9500      0.5000      0.9500      0.9000      0.0100           0
TORD7           A                  1200.0000      0.0000    240.0000    543.9623      1.0000      5.4372      0.9500      0.5000      0.9500      0.9000      0.0100           0
TORD7           A                  1200.0000      0.0000    240.0000    543.9623      1.0000      7.2892      0.9500      0.5000      0.9500      0.9000      0.0100           0
TORD4           C                  1200.0000      0.0000    180.0000    363.9623      1.0000      1.2103      0.9500      0.5000      0.9500      0.5000      0.0100           0
TORD2           A                   250.1000      0.0000     50.0200    119.6233      1.0000      2.7416      0.9500      0.5000      0.9500      0.9000      0.0100           0
TORD2           A                   250.1000      0.0000     50.0200    119.6233      1.0000      0.3414      0.9500      0.5000      0.9500      0.9000      0.0100           0
TORD2           A                   250.1000      0.0000     50.0200    119.6233      1.0000      1.0418      0.9500      0.5000      0.9500      0.9000      0.0100           0
TORD4           C                  1200.0000      0.0000    180.0000    363.9623      1.0000      1.3090      0.9500      0.5000      0.9500      0.5000      0.0100           0
TORD7           A                  1200.0000      0.0000    240.0000    543.9623      1.0000      3.2765      0.9500      0.5000      0.9500      0.9000      0.0100           0
TORD6           C                   350.0000      0.0000     70.0000    149.9057      1.0000      5.4940      0.9500      0.5000      0.9500      0.5000      0.0100           0
TORD6           C                   350.0000      0.0000     70.0000    149.9057      1.0000     10.8659      0.9500      0.5000      0.9500      0.5000      0.0100           0
TORD6           C                   350.0000      0.0000     70.0000    149.9057      1.0000      3.0424      0.9500      0.5000      0.9500      0.5000      0.0100           0
TORD6           C                   350.0000      0.0000     70.0000    149.9057      1.0000      1.1991      0.9500      0.5000      0.9500      0.5000      0.0100           0
TORD6           C                   350.0000      0.0000     70.0000    149.9057      1.0000      0.5992      0.9500      0.5000      0.9500      0.5000      0.0100           0
TORD2           A                   250.1000      0.0000     50.0200    119.6233      1.0000      5.5895      0.9500      0.5000      0.9500      0.9000      0.0100           0
TORD2           A                   250.1000      0.0000     50.0200    119.6233      1.0000     10.8766      0.9500      0.5000      0.9500      0.9000      0.0100           0
TORD2           A                   250.1000      0.0000     50.0200    119.6233      1.0000      3.0217      0.9500      0.5000      0.9500      0.9000      0.0100           0
TORD2           A                   250.1000      0.0000     50.0200    119.6233      1.0000      1.1019      0.9500      0.5000      0.9500      0.9000      0.0100           0
TORD2           A                   250.1000      0.0000     50.0200    119.6233      1.0000      0.6346      0.9500      0.5000      0.9500      0.9000      0.0100           0
TORD7           A                  1200.0000      0.0000    240.0000    543.9623      1.0000      2.7467      0.9500      0.5000      0.9500      0.9000      0.0100           0
TORD7           A                  1200.0000      0.0000    240.0000    543.9623      1.0000      0.3814      0.9500      0.5000      0.9500      0.9000      0.0100           0
TORD7           A                  1200.0000      0.0000    240.0000    543.9623      1.0000      1.5908      0.9500      0.5000      0.9500      0.9000      0.0100           0
TORD6           C                   350.0000      0.0000     70.0000    149.9057      1.0000      5.6258      0.9500      0.5000      0.9500      0.5000      0.0100           0
TORD6           C                   350.0000      0.0000     70.0000    149.9057      1.0000     11.3333      0.9500      0.5000      0.9500      0.5000      0.0100           0
TORD6           C                   350.0000      0.0000     70.0000    149.9057      1.0000      3.0390      0.9500      0.5000      0.9500      0.5000      0.0100           0
TORD6           C                   350.0000      0.0000     70.0000    149.9057      1.0000      1.4003      0.9500      0.5000      0.9500      0.5000      0.0100           0
TORD2           A                   250.1000      0.0000     50.0200    119.6233      1.0000      5.3953      0.9500      0.5000      0.9500      0.9000      0.0100           0
TORD2           A                   250.1000      0.0000     50.0200    119.6233      1.0000      1.0355      0.9500      0.5000      0.9500      0.9000      0.0100           0
TORD2           A                   250.1000      0.0000     50.0200    119.6233      1.0000      9.6232      0.9500      0.5000      0.9500      0.9000      0.0100           0
TORD2           A                   250.1000      0.0000     50.0200    119.6233      1.0000      3.1419      0.9500      0.5000      0.9500      0.9000      0.0100           0
TORD6           C                   350.0000      0.0000     70.0000    149.9057      1.0000      5.6875      0.9500      0.5000      0.9500      0.5000      0.0100           0
TORD6           C                   350.0000      0.0000     70.0000    149.9057      1.0000     12.0075      0.9500      0.5000      0.9500      0.5000      0.0100           0
TORD6           C                   350.0000      0.0000     70.0000    149.9057      1.0000      2.9459      0.9500      0.5000      0.9500      0.5000      0.0100           0
TORD6           C                   350.0000      0.0000     70.0000    149.9057      1.0000      1.5719      0.9500      0.5000      0.9500      0.5000      0.0100           0
TORD6           C                   350.0000      0.0000     70.0000    149.9057      1.0000      0.7499      0.9500      0.5000      0.9500      0.5000      0.0100           0
TORD2           A                   250.1000      0.0000     50.0200    119.6233      1.0000      5.6006      0.9500      0.5000      0.9500      0.9000      0.0100           0
TORD2           A                   250.1000      0.0000     50.0200    119.6233      1.0000     10.0895      0.9500      0.5000      0.9500      0.9000      0.0100           0
TORD2           A                   250.1000      0.0000     50.0200    119.6233      1.0000      2.9340      0.9500      0.5000      0.9500      0.9000      0.0100           0
TORD2           A                   250.1000      0.0000     50.0200    119.6233      1.0000      0.6404      0.9500      0.5000      0.9500      0.9000      0.0100           0
TORD2           A                   250.1000      0.0000     50.0200    119.6233      1.0000      1.0789      0.9500      0.5000      0.9500      0.9000      0.0100           0
TORD7           A                  1200.0000      0.0000    240.0000    543.9623      1.0000     10.5384      0.9500      0.5000      0.9500      0.9000      0.0100           0
TORD7           A                  1200.0000      0.0000    240.0000    543.9623      1.0000      1.3760      0.9500      0.5000      0.9500      0.9000      0.0100           0
TORD7           A                  1200.0000      0.0000    240.0000    543.9623      1.0000      2.8631      0.9500      0.5000      0.9500      0.9000      0.0100           0
TORD7           A                  1200.0000      0.0000    240.0000    543.9623      1.0000      5.5362      0.9500      0.5000      0.9500      0.9000      0.0100           0
TORD2           A                   250.1000      0.0000     50.0200    119.6233      1.0000      3.3181      0.9500      0.5000      0.9500      0.9000      0.0100           0
TORD2           A                   250.1000      0.0000     50.0200    119.6233      1.0000      5.9496      0.9500      0.5000      0.9500      0.9000      0.0100           0
TORD2           A                   250.1000      0.0000     50.0200    119.6233      1.0000     10.9277      0.9500      0.5000      0.9500      0.9000      0.0100           0
TORD2           A                   250.1000      0.0000     50.0200    119.6233      1.0000      2.6508      0.9500      0.5000      0.9500      0.9000      0.0100           0
TORD2           A                   250.1000      0.0000     50.0200    119.6233      1.0000      6.5826      0.9500      0.5000      0.9500      0.9000      0.0100           0
TORD6           C                   350.0000      0.0000     70.0000    149.9057      1.0000     11.4504      0.9500      0.5000      0.9500      0.5000      0.0100           0
TORD6           C                   350.0000      0.0000     70.0000    149.9057      1.0000      5.5352      0.9500      0.5000      0.9500      0.5000      0.0100           0
TORD6           C                   350.0000      0.0000     70.0000    149.9057      1.0000      2.7789      0.9500      0.5000      0.9500      0.5000      0.0100           0
TORD6           C                   350.0000      0.0000     70.0000    149.9057      1.0000      1.2451      0.9500      0.5000      0.9500      0.5000      0.0100           0
TORD6           C                   350.0000      0.0000     70.0000    149.9057      1.0000      0.7976      0.9500      0.5000      0.9500      0.5000      0.0100           0
TORD2           A                   250.1000      0.0000     50.0200    119.6233      1.0000      5.3512      0.9500      0.5000      0.9500      0.9000      0.0100           0
TORD2           A                   250.1000      0.0000     50.0200    119.6233      1.0000      2.8902      0.9500      0.5000      0.9500      0.9000      0.0100           0
TORD2           A                   250.1000      0.0000     50.0200    119.6233      1.0000      0.6662      0.9500      0.5000      0.9500      0.9000      0.0100           0
TORD2           A                   250.1000      0.0000     50.0200    119.6233      1.0000      1.1007      0.9500      0.5000      0.9500      0.9000      0.0100           0
TORD2           A                   250.1000      0.0000     50.0200    119.6233      1.0000      8.9636      0.9500      0.5000      0.9500      0.9000      0.0100           0
TORD7           A                  1200.0000      0.0000    240.0000    543.9623      1.0000      0.1325      0.9500      0.5000      0.9500      0.9000      0.0100           0
TORD7           A                  1200.0000      0.0000    240.0000    543.9623      1.0000      1.1390      0.9500      0.5000      0.9500      0.9000      0.0100           0
TORD7           A                  1200.0000      0.0000    240.0000    543.9623      1.0000      2.2131      0.9500      0.5000      0.9500      0.9000      0.0100           0
TORD6           C                   350.0000      0.0000     70.0000    149.9057      1.0000     10.6366      0.9500      0.5000      0.9500      0.5000      0.0100           0
TORD6           C                   350.0000      0.0000     70.0000    149.9057      1.0000      5.8414      0.9500      0.5000      0.9500      0.5000      0.0100           0
TORD6           C                   350.0000      0.0000     70.0000    149.9057      1.0000      2.6256      0.9500      0.5000      0.9500      0.5000      0.0100           0
TORD6           C                   350.0000      0.0000     70.0000    149.9057      1.0000      1.0284      0.9500      0.5000      0.9500      0.5000      0.0100           0
TORD6           C                   350.0000      0.0000     70.0000    149.9057      1.0000      0.5609      0.9500      0.5000      0.9500      0.5000      0.0100           0
TORD2           A                   250.1000      0.0000     50.0200    119.6233      1.0000      9.5696      0.9500      0.5000      0.9500      0.9000      0.0100           0
TORD2           A                   250.1000      0.0000     50.0200    119.6233      1.0000      5.4667      0.9500      0.5000      0.9500      0.9000      0.0100           0
TORD2           A                   250.1000      0.0000     50.0200    119.6233      1.0000      0.4223      0.9500      0.5000      0.9500      0.9000      0.0100           0
TORD2           A                   250.1000      0.0000     50.0200    119.6233      1.0000      1.0289      0.9500      0.5000      0.9500      0.9000      0.0100           0
TORD2           A                   250.1000      0.0000     50.0200    119.6233      1.0000      2.7638      0.9500      0.5000      0.9500      0.9000      0.0100           0
TORD7           A                  1200.0000      0.0000    240.0000    543.9623      1.0000      1.2896      0.9500      0.5000      0.9500      0.9000      0.0100           0
TORD7           A                  1200.0000      0.0000    240.0000    543.9623      1.0000      0.4533      0.9500      0.5000      0.9500      0.9000      0.0100           0
TORD6           C                   350.0000      0.0000     70.0000    149.9057      1.0000     11.6037      0.9500      0.5000      0.9500      0.5000      0.0100           0
TORD6           C                   350.0000      0.0000     70.0000    149.9057      1.0000      6.1895      0.9500      0.5000      0.9500      0.5000      0.0100           0
TORD6           C                   350.0000      0.0000     70.0000    149.9057      1.0000      2.9459      0.9500      0.5000      0.9500      0.5000      0.0100           0
TORD6           C                   350.0000      0.0000     70.0000    149.9057      1.0000      0.9772      0.9500      0.5000      0.9500      0.5000      0.0100           0
TORD6           C                   350.0000      0.0000     70.0000    149.9057      1.0000      0.8885      0.9500      0.5000      0.9500      0.5000      0.0100           0
TORD2           A                   250.1000      0.0000     50.0200    119.6233      1.0000      9.4973      0.9500      0.5000      0.9500      0.9000      0.0100           0
TORD2           A                   250.1000      0.0000     50.0200    119.6233      1.0000      5.2152      0.9500      0.5000      0.9500      0.9000      0.0100           0
TORD2           A                   250.1000      0.0000     50.0200    119.6233      1.0000      2.8106      0.9500      0.5000      0.9500      0.9000      0.0100           0
TORD2           A                   250.1000      0.0000     50.0200    119.6233      1.0000      1.1694      0.9500      0.5000      0.9500      0.9000      0.0100           0
TORD2           A                   250.1000      0.0000     50.0200    119.6233      1.0000      0.6988      0.9500      0.5000      0.9500      0.9000      0.0100           0
TORD7           A                  1200.0000      0.0000    240.0000    543.9623      1.0000      0.6882      0.9500      0.5000      0.9500      0.9000      0.0100           0
TORD7           A                  1200.0000      0.0000    240.0000    543.9623      1.0000      1.5197      0.9500      0.5000      0.9500      0.9000      0.0100           0
TORD7           A                  1200.0000      0.0000    240.0000    543.9623      1.0000      3.4620      0.9500      0.5000      0.9500      0.9000      0.0100           0
TORD6           C                   350.0000      0.0000     70.0000    149.9057      1.0000     12.5574      0.9500      0.5000      0.9500      0.5000      0.0100           0
TORD6           C                   350.0000      0.0000     70.0000    149.9057      1.0000      1.5422      0.9500      0.5000      0.9500      0.5000      0.0100           0
TORD6           C                   350.0000      0.0000     70.0000    149.9057      1.0000      6.5826      0.9500      0.5000      0.9500      0.5000      0.0100           0
TORD2           A                   250.1000      0.0000     50.0200    119.6233      1.0000      2.7011      0.9500      0.5000      0.9500      0.9000      0.0100           0
TORD2           A                   250.1000      0.0000     50.0200    119.6233      1.0000      5.0515      0.9500      0.5000      0.9500      0.9000      0.0100           0
TORD2           A                   250.1000      0.0000     50.0200    119.6233      1.0000      1.2385      0.9500      0.5000      0.9500      0.9000      0.0100           0
TORD2           A                   250.1000      0.0000     50.0200    119.6233      1.0000      0.5990      0.9500      0.5000      0.9500      0.9000      0.0100           0
TORD7           A                  1200.0000      0.0000    240.0000    543.9623      1.0000      1.5435      0.9500      0.5000      0.9500      0.9000      0.0100           0
TORD7           A                  1200.0000      0.0000    240.0000    543.9623      1.0000      2.7454      0.9500      0.5000      0.9500      0.9000      0.0100           0
TORD6           C                   350.0000      0.0000     70.0000    149.9057      1.0000      3.6164      0.9500      0.5000      0.9500      0.5000      0.0100           0
TORD6           C                   350.0000      0.0000     70.0000    149.9057      1.0000      1.4718      0.9500      0.5000      0.9500      0.5000      0.0100           0
TORD2           A                   250.1000      0.0000     50.0200    119.6233      1.0000      7.5613      0.9500      0.5000      0.9500      0.9000      0.0100           0
TORD2           A                   250.1000      0.0000     50.0200    119.6233      1.0000      4.9400      0.9500      0.5000      0.9500      0.9000      0.0100           0
TORD2           A                   250.1000      0.0000     50.0200    119.6233      1.0000      2.9896      0.9500      0.5000      0.9500      0.9000      0.0100           0
TORD2           A                   250.1000      0.0000     50.0200    119.6233      1.0000      0.5662      0.9500      0.5000      0.9500      0.9000      0.0100           0
TORD2           A                   250.1000      0.0000     50.0200    119.6233      1.0000      1.0789      0.9500      0.5000      0.9500      0.9000      0.0100           0
TORD7           A                  1200.0000      0.0000    240.0000    543.9623      1.0000      1.0224      0.9500      0.5000      0.9500      0.9000      0.0100           0
TORD6           C                   350.0000      0.0000     70.0000    149.9057      1.0000      6.8026      0.9500      0.5000      0.9500      0.5000      0.0100           0
TORD2           A                   250.1000      0.0000     50.0200    119.6233      1.0000      2.8802      0.9500      0.5000      0.9500      0.9000      0.0100           0
TORD2           A                   250.1000      0.0000     50.0200    119.6233      1.0000      5.0071      0.9500      0.5000      0.9500      0.9000      0.0100           0
TORD2           A                   250.1000      0.0000     50.0200    119.6233      1.0000      1.2800      0.9500      0.5000      0.9500      0.9000      0.0100           0
TORD2           A                   250.1000      0.0000     50.0200    119.6233      1.0000      0.6548      0.9500      0.5000      0.9500      0.9000      0.0100           0
TORD2           A                   250.1000      0.0000     50.0200    119.6233      1.0000      8.0993      0.9500      0.5000      0.9500      0.9000      0.0100           0
TORD2           A                   250.1000      0.0000     50.0200    119.6233      1.0000      1.1362      0.9500      0.5000      0.9500      0.9000      0.0100           0
TORD2           A                   250.1000      0.0000     50.0200    119.6233      1.0000      5.3368      0.9500      0.5000      0.9500      0.9000      0.0100           0
TORD2           A                   250.1000      0.0000     50.0200    119.6233      1.0000      1.9043      0.9500      0.5000      0.9500      0.9000      0.0100           0
TORD2           A                   250.1000      0.0000     50.0200    119.6233      1.0000      3.3943      0.9500      0.5000      0.9500      0.9000      0.0100           0
TORD2           A                   250.1000      0.0000     50.0200    119.6233      1.0000      1.5657      0.9500      0.5000      0.9500      0.9000      0.0100           0
TORD2           A                   250.1000      0.0000     50.0200    119.6233      1.0000      0.6942      0.9500      0.5000      0.9500      0.9000      0.0100           0
TORD2           A                   250.1000      0.0000     50.0200    119.6233      1.0000      4.4267      0.9500      0.5000      0.9500      0.9000      0.0100           0
TORD2           A                   250.1000      0.0000     50.0200    119.6233      1.0000      2.8708      0.9500      0.5000      0.9500      0.9000      0.0100           0
TORD2           A                   250.1000      0.0000     50.0200    119.6233      1.0000      5.4517      0.9500      0.5000      0.9500      0.9000      0.0100           0
TORD2           A                   250.1000      0.0000     50.0200    119.6233      1.0000      1.1622      0.9500      0.5000      0.9500      0.9000      0.0100           0
TORD2           A                   250.1000      0.0000     50.0200    119.6233      1.0000     11.5803      0.9500      0.5000      0.9500      0.9000      0.0100           0
TORD2           A                   250.1000      0.0000     50.0200    119.6233      1.0000      0.6159      0.9500      0.5000      0.9500      0.9000      0.0100           0
TORD7           A                  1200.0000      0.0000    240.0000    543.9623      1.0000     11.0701      0.9500      0.5000      0.9500      0.9000      0.0100           0
TORD7           A                  1200.0000      0.0000    240.0000    543.9623      1.0000      0.8607      0.9500      0.5000      0.9500      0.9000      0.0100           0
TORD7           A                  1200.0000      0.0000    240.0000    543.9623      1.0000      2.6817      0.9500      0.5000      0.9500      0.9000      0.0100           0
TORD7           A                  1200.0000      0.0000    240.0000    543.9623      1.0000      5.4033      0.9500      0.5000      0.9500      0.9000      0.0100           0
TORD7           A                  1200.0000      0.0000    240.0000    543.9623      1.0000      0.5657      0.9500      0.5000      0.9500      0.9000      0.0100           0
TORD2           A                   250.1000      0.0000     50.0200    119.6233      1.0000      5.5279      0.9500      0.5000      0.9500      0.9000      0.0100           0
TORD2           A                   250.1000      0.0000     50.0200    119.6233      1.0000      2.9775      0.9500      0.5000      0.9500      0.9000      0.0100           0
TORD2           A                   250.1000      0.0000     50.0200    119.6233      1.0000      1.2691      0.9500      0.5000      0.9500      0.9000      0.0100           0
TORD2           A                   250.1000      0.0000     50.0200    119.6233      1.0000     11.4626      0.9500      0.5000      0.9500      0.9000      0.0100           0
TORD2           A                   250.1000      0.0000     50.0200    119.6233      1.0000      0.6099      0.9500      0.5000      0.9500      0.9000      0.0100           0
TORD7           A                  1200.0000      0.0000    240.0000    543.9623      1.0000     10.6694      0.9500      0.5000      0.9500      0.9000      0.0100           0
TORD7           A                  1200.0000      0.0000    240.0000    543.9623      1.0000      1.3677      0.9500      0.5000      0.9500      0.9000      0.0100           0
TORD7           A                  1200.0000      0.0000    240.0000    543.9623      1.0000      2.5272      0.9500      0.5000      0.9500      0.9000      0.0100           0
TORD7           A                  1200.0000      0.0000    240.0000    543.9623      1.0000      5.1579      0.9500      0.5000      0.9500      0.9000      0.0100           0
TORD2           A                   250.1000      0.0000     50.0200    119.6233      1.0000      2.9519      0.9500      0.5000      0.9500      0.9000      0.0100           0
TORD2           A                   250.1000      0.0000     50.0200    119.6233      1.0000      0.9218      0.9500      0.5000      0.9500      0.9000      0.0100           0
TORD2           A                   250.1000      0.0000     50.0200    119.6233      1.0000      0.5978      0.9500      0.5000      0.9500      0.9000      0.0100           0
TORD2           A                   250.1000      0.0000     50.0200    119.6233      1.0000      6.1897      0.9500      0.5000      0.9500      0.9000      0.0100           0
TORD2           A                   250.1000      0.0000     50.0200    119.6233      1.0000      9.0726      0.9500      0.5000      0.9500      0.9000      0.0100           0
TORD7           A                  1200.0000      0.0000    240.0000    543.9623      1.0000      3.4303      0.9500      0.5000      0.9500      0.9000      0.0100           0
TORD2           A                   250.1000      0.0000     50.0200    119.6233      1.0000      2.8579      0.9500      0.5000      0.9500      0.9000      0.0100           0
TORD2           A                   250.1000      0.0000     50.0200    119.6233      1.0000      1.3458      0.9500      0.5000      0.9500      0.9000      0.0100           0
TORD2           A                   250.1000      0.0000     50.0200    119.6233      1.0000      5.4645      0.9500      0.5000      0.9500      0.9000      0.0100           0
TORD2           A                   250.1000      0.0000     50.0200    119.6233      1.0000      0.8474      0.9500      0.5000      0.9500      0.9000      0.0100           0
TORD2           A                   250.1000      0.0000     50.0200    119.6233      1.0000      9.9240      0.9500      0.5000      0.9500      0.9000      0.0100           0
TORD7           A                  1200.0000      0.0000    240.0000    543.9623      1.0000      9.7671      0.9500      0.5000      0.9500      0.9000      0.0100           0
TORD7           A                  1200.0000      0.0000    240.0000    543.9623      1.0000      3.0162      0.9500      0.5000      0.9500      0.9000      0.0100           0
TORD7           A                  1200.0000      0.0000    240.0000    543.9623      1.0000      5.4170      0.9500      0.5000      0.9500      0.9000      0.0100           0
TORD2           A                   250.1000      0.0000     50.0200    119.6233      1.0000      1.2264      0.9500      0.5000      0.9500      0.9000      0.0100           0
TORD2           A                   250.1000      0.0000     50.0200    119.6233      1.0000      2.6659      0.9500      0.5000      0.9500      0.9000      0.0100           0
TORD2           A                   250.1000      0.0000     50.0200    119.6233      1.0000      0.4467      0.9500      0.5000      0.9500      0.9000      0.0100           0
TORD2           A                   250.1000      0.0000     50.0200    119.6233      1.0000      5.2454      0.9500      0.5000      0.9500      0.9000      0.0100           0
TORD2           A                   250.1000      0.0000     50.0200    119.6233      1.0000     11.7419      0.9500      0.5000      0.9500      0.9000      0.0100           0
TORD7           A                  1200.0000      0.0000    240.0000    543.9623      1.0000      4.3725      0.9500      0.5000      0.9500      0.9000      0.0100           0
TORD2           A                   250.1000      0.0000     50.0200    119.6233      1.0000      0.7146      0.9500      0.5000      0.9500      0.9000      0.0100           0
TORD2           A                   250.1000      0.0000     50.0200    119.6233      1.0000      2.4769      0.9500      0.5000      0.9500      0.9000      0.0100           0
TORD2           A                   250.1000      0.0000     50.0200    119.6233      1.0000      5.7057      0.9500      0.5000      0.9500      0.9000      0.0100           0
TORD2           A                   250.1000      0.0000     50.0200    119.6233      1.0000      2.5345      0.9500      0.5000      0.9500      0.9000      0.0100           0
TORD2           A                   250.1000      0.0000     50.0200    119.6233      1.0000      8.0867      0.9500      0.5000      0.9500      0.9000      0.0100           0
TORD2           A                   250.1000      0.0000     50.0200    119.6233      1.0000      4.3402      0.9500      0.5000      0.9500      0.9000      0.0100           0
TORD2           A                   250.1000      0.0000     50.0200    119.6233      1.0000      1.1234      0.9500      0.5000      0.9500      0.9000      0.0100           0
TORD2           A                   250.1000      0.0000     50.0200    119.6233      1.0000      0.6114      0.9500      0.5000      0.9500      0.9000      0.0100           0
TORD2           A                   250.1000      0.0000     50.0200    119.6233      1.0000      9.2693      0.9500      0.5000      0.9500      0.9000      0.0100           0
TORD2           A                   250.1000      0.0000     50.0200    119.6233      1.0000      0.6404      0.9500      0.5000      0.9500      0.9000      0.0100           0
TORD6           C                   350.0000      0.0000     70.0000    149.9057      1.0000     13.1069      0.9500      0.5000      0.9500      0.5000      0.0100           0
TORD6           C                   350.0000      0.0000     70.0000    149.9057      1.0000      3.2451      0.9500      0.5000      0.9500      0.5000      0.0100           0
TORD6           C                   350.0000      0.0000     70.0000    149.9057      1.0000      6.8674      0.9500      0.5000      0.9500      0.5000      0.0100           0
TORD2           A                   250.1000      0.0000     50.0200    119.6233      1.0000     10.1830      0.9500      0.5000      0.9500      0.9000      0.0100           0
TORD2           A                   250.1000      0.0000     50.0200    119.6233      1.0000      5.3993      0.9500      0.5000      0.9500      0.9000      0.0100           0
TORD2           A                   250.1000      0.0000     50.0200    119.6233      1.0000      2.9477      0.9500      0.5000      0.9500      0.9000      0.0100           0
TORD2           A                   250.1000      0.0000     50.0200    119.6233      1.0000      1.1762      0.9500      0.5000      0.9500      0.9000      0.0100           0
TORD2           A                   250.1000      0.0000     50.0200    119.6233      1.0000      0.5454      0.9500      0.5000      0.9500      0.9000      0.0100           0
TORD7           A                  1200.0000      0.0000    240.0000    543.9623      1.0000      2.5721      0.9500      0.5000      0.9500      0.9000      0.0100           0
TORD7           A                  1200.0000      0.0000    240.0000    543.9623      1.0000      1.1257      0.9500      0.5000      0.9500      0.9000      0.0100           0
TORD7           A                  1200.0000      0.0000    240.0000    543.9623      1.0000      9.7314      0.9500      0.5000      0.9500      0.9000      0.0100           0
TORD7           A                  1200.0000      0.0000    240.0000    543.9623      1.0000      5.5276      0.9500      0.5000      0.9500      0.9000      0.0100           0
TORD7           A                  1200.0000      0.0000    240.0000    543.9623      1.0000      0.4903      0.9500      0.5000      0.9500      0.9000      0.0100           0
TORD6           C                   350.0000      0.0000     70.0000    149.9057      1.0000     11.7947      0.9500      0.5000      0.9500      0.5000      0.0100           0
TORD2           A                   250.1000      0.0000     50.0200    119.6233      1.0000      9.4578      0.9500      0.5000      0.9500      0.9000      0.0100           0
TORD2           A                   250.1000      0.0000     50.0200    119.6233      1.0000      5.2567      0.9500      0.5000      0.9500      0.9000      0.0100           0
TORD2           A                   250.1000      0.0000     50.0200    119.6233      1.0000      2.8331      0.9500      0.5000      0.9500      0.9000      0.0100           0
TORD2           A                   250.1000      0.0000     50.0200    119.6233      1.0000      1.1905      0.9500      0.5000      0.9500      0.9000      0.0100           0
TORD2           A                   250.1000      0.0000     50.0200    119.6233      1.0000      0.5512      0.9500      0.5000      0.9500      0.9000      0.0100           0
TORD7           A                  1200.0000      0.0000    240.0000    543.9623      1.0000      5.1940      0.9500      0.5000      0.9500      0.9000      0.0100           0
TORD7           A                  1200.0000      0.0000    240.0000    543.9623      1.0000      2.6126      0.9500      0.5000      0.9500      0.9000      0.0100           0
TORD7           A                  1200.0000      0.0000    240.0000    543.9623      1.0000      8.1367      0.9500      0.5000      0.9500      0.9000      0.0100           0
TORD7           A                  1200.0000      0.0000    240.0000    543.9623      1.0000      1.1548      0.9500      0.5000      0.9500      0.9000      0.0100           0
TORD7           A                  1200.0000      0.0000    240.0000    543.9623      1.0000      0.6036      0.9500      0.5000      0.9500      0.9000      0.0100           0
TORD2           A                   250.1000      0.0000     50.0200    119.6233      1.0000      2.6447      0.9500      0.5000      0.9500      0.9000      0.0100           0
TORD2           A                   250.1000      0.0000     50.0200    119.6233      1.0000     10.8362      0.9500      0.5000      0.9500      0.9000      0.0100           0
TORD2           A                   250.1000      0.0000     50.0200    119.6233      1.0000      1.0843      0.9500      0.5000      0.9500      0.9000      0.0100           0
TORD2           A                   250.1000      0.0000     50.0200    119.6233      1.0000      5.4505      0.9500      0.5000      0.9500      0.9000      0.0100           0
TORD2           A                   250.1000      0.0000     50.0200    119.6233      1.0000      0.6091      0.9500      0.5000      0.9500      0.9000      0.0100           0
TORD7           A                  1200.0000      0.0000    240.0000    543.9623      1.0000      1.0373      0.9500      0.5000      0.9500      0.9000      0.0100           0
TORD7           A                  1200.0000      0.0000    240.0000    543.9623      1.0000      2.6661      0.9500      0.5000      0.9500      0.9000      0.0100           0
TORD7           A                  1200.0000      0.0000    240.0000    543.9623      1.0000      0.4332      0.9500      0.5000      0.9500      0.9000      0.0100           0
TORD7           A                  1200.0000      0.0000    240.0000    543.9623      1.0000      5.3923      0.9500      0.5000      0.9500      0.9000      0.0100           0
TORD7           A                  1200.0000      0.0000    240.0000    543.9623      1.0000      9.5365      0.9500      0.5000      0.9500      0.9000      0.0100           0
TORD2           A                   250.1000      0.0000     50.0200    119.6233      1.0000      1.1495      0.9500      0.5000      0.9500      0.9000      0.0100           0
TORD2           A                   250.1000      0.0000     50.0200    119.6233      1.0000      5.0417      0.9500      0.5000      0.9500      0.9000      0.0100           0
TORD2           A                   250.1000      0.0000     50.0200    119.6233      1.0000      2.8021      0.9500      0.5000      0.9500      0.9000      0.0100           0
TORD2           A                   250.1000      0.0000     50.0200    119.6233      1.0000      8.9438      0.9500      0.5000      0.9500      0.9000      0.0100           0
TORD2           A                   250.1000      0.0000     50.0200    119.6233      1.0000      0.7624      0.9500      0.5000      0.9500      0.9000      0.0100           0
TORD7           A                  1200.0000      0.0000    240.0000    543.9623      1.0000      2.3737      0.9500      0.5000      0.9500      0.9000      0.0100           0
TORD7           A                  1200.0000      0.0000    240.0000    543.9623      1.0000      1.0396      0.9500      0.5000      0.9500      0.9000      0.0100           0
TORD7           A                  1200.0000      0.0000    240.0000    543.9623      1.0000      5.5817      0.9500      0.5000      0.9500      0.9000      0.0100           0
TORD7           A                  1200.0000      0.0000    240.0000    543.9623      1.0000      0.7167      0.9500      0.5000      0.9500      0.9000      0.0100           0
TORD2           A                   250.1000      0.0000     50.0200    119.6233      1.0000      2.6322      0.9500      0.5000      0.9500      0.9000      0.0100           0
TORD2           A                   250.1000      0.0000     50.0200    119.6233      1.0000      5.6223      0.9500      0.5000      0.9500      0.9000      0.0100           0
TORD2           A                   250.1000      0.0000     50.0200    119.6233      1.0000      1.3896      0.9500      0.5000      0.9500      0.9000      0.0100           0
TORD2           A                   250.1000      0.0000     50.0200    119.6233      1.0000      0.3736      0.9500      0.5000      0.9500      0.9000      0.0100           0
TORD2           A                   250.1000      0.0000     50.0200    119.6233      1.0000      7.2833      0.9500      0.5000      0.9500      0.9000      0.0100           0
TORD7           A                  1200.0000      0.0000    240.0000    543.9623      1.0000      2.6926      0.9500      0.5000      0.9500      0.9000      0.0100           0
TORD7           A                  1200.0000      0.0000    240.0000    543.9623      1.0000      5.3968      0.9500      0.5000      0.9500      0.9000      0.0100           0
TORD7           A                  1200.0000      0.0000    240.0000    543.9623      1.0000      0.9726      0.9500      0.5000      0.9500      0.9000      0.0100           0
TORD7           A                  1200.0000      0.0000    240.0000    543.9623      1.0000      0.9091      0.9500      0.5000      0.9500      0.9000      0.0100           0
TORD2           A                   250.1000      0.0000     50.0200    119.6233      1.0000      2.4225      0.9500      0.5000      0.9500      0.9000      0.0100           0
TORD2           A                   250.1000      0.0000     50.0200    119.6233      1.0000      4.6404      0.9500      0.5000      0.9500      0.9000      0.0100           0
TORD2           A                   250.1000      0.0000     50.0200    119.6233      1.0000      0.2256      0.9500      0.5000      0.9500      0.9000      0.0100           0
TORD2           A                   250.1000      0.0000     50.0200    119.6233      1.0000      0.8803      0.9500      0.5000      0.9500      0.9000      0.0100           0
TORD2           A                   250.1000      0.0000     50.0200    119.6233      1.0000      9.0804      0.9500      0.5000      0.9500      0.9000      0.0100           0
TORD7           A                  1200.0000      0.0000    240.0000    543.9623      1.0000      2.8718      0.9500      0.5000      0.9500      0.9000      0.0100           0
TORD7           A                  1200.0000      0.0000    240.0000    543.9623      1.0000      0.8193      0.9500      0.5000      0.9500      0.9000      0.0100           0
TORD7           A                  1200.0000      0.0000    240.0000    543.9623      1.0000      0.5337      0.9500      0.5000      0.9500      0.9000      0.0100           0
TORD2           A                   250.1000      0.0000     50.0200    119.6233      1.0000      3.2576      0.9500      0.5000      0.9500      0.9000      0.0100           0
TORD7           A                  1200.0000      0.0000    240.0000    543.9623      1.0000      0.8532      0.9500      0.5000      0.9500      0.9000      0.0100           0
TORD7           A                  1200.0000      0.0000    240.0000    543.9623      1.0000      0.6449      0.9500      0.5000      0.9500      0.9000      0.0100           0
TORD7           A                  1200.0000      0.0000    240.0000    543.9623      1.0000      2.3614      0.9500      0.5000      0.9500      0.9000      0.0100           0
TORD2           A                   250.1000      0.0000     50.0200    119.6233      1.0000      0.3961      0.9500      0.5000      0.9500      0.9000      0.0100           0
TORD2           A                   250.1000      0.0000     50.0200    119.6233      1.0000      1.1799      0.9500      0.5000      0.9500      0.9000      0.0100           0
TORD7           A                  1200.0000      0.0000    240.0000    543.9623      1.0000      2.5552      0.9500      0.5000      0.9500      0.9000      0.0100           0
TORD2           A                   250.1000      0.0000     50.0200    119.6233      1.0000      2.8072      0.9500      0.5000      0.9500      0.9000      0.0100           0
TORD2           A                   250.1000      0.0000     50.0200    119.6233      1.0000     10.5093      0.9500      0.5000      0.9500      0.9000      0.0100           0
TORD2           A                   250.1000      0.0000     50.0200    119.6233      1.0000      5.5108      0.9500      0.5000      0.9500      0.9000      0.0100           0
TORD2           A                   250.1000      0.0000     50.0200    119.6233      1.0000      1.1190      0.9500      0.5000      0.9500      0.9000      0.0100           0
TORD2           A                   250.1000      0.0000     50.0200    119.6233      1.0000      0.4965      0.9500      0.5000      0.9500      0.9000      0.0100           0
TORD7           A                  1200.0000      0.0000    240.0000    543.9623      1.0000      1.3385      0.9500      0.5000      0.9500      0.9000      0.0100           0
TORD2           A                   250.1000      0.0000     50.0200    119.6233      1.0000      5.6006      0.9500      0.5000      0.9500      0.9000      0.0100           0
TORD2           A                   250.1000      0.0000     50.0200    119.6233      1.0000     10.7543      0.9500      0.5000      0.9500      0.9000      0.0100           0
TORD2           A                   250.1000      0.0000     50.0200    119.6233      1.0000      3.0498      0.9500      0.5000      0.9500      0.9000      0.0100           0
TORD2           A                   250.1000      0.0000     50.0200    119.6233      1.0000      1.3066      0.9500      0.5000      0.9500      0.9000      0.0100           0
TORD2           A                   250.1000      0.0000     50.0200    119.6233      1.0000      0.6915      0.9500      0.5000      0.9500      0.9000      0.0100           0
TORD7           A                  1200.0000      0.0000    240.0000    543.9623      1.0000      0.8987      0.9500      0.5000      0.9500      0.9000      0.0100           0
TORD2           A                   250.1000      0.0000     50.0200    119.6233      1.0000     10.2622      0.9500      0.5000      0.9500      0.9000      0.0100           0
TORD2           A                   250.1000      0.0000     50.0200    119.6233      1.0000      5.6167      0.9500      0.5000      0.9500      0.9000      0.0100           0
TORD2           A                   250.1000      0.0000     50.0200    119.6233      1.0000      2.9594      0.9500      0.5000      0.9500      0.9000      0.0100           0
TORD2           A                   250.1000      0.0000     50.0200    119.6233      1.0000      1.1658      0.9500      0.5000      0.9500      0.9000      0.0100           0
TORD7           A                  1200.0000      0.0000    240.0000    543.9623      1.0000      2.8680      0.9500      0.5000      0.9500      0.9000      0.0100           0
TORD2           A                   250.1000      0.0000     50.0200    119.6233      1.0000      4.6792      0.9500      0.5000      0.9500      0.9000      0.0100           0
TORD2           A                   250.1000      0.0000     50.0200    119.6233      1.0000      3.1005      0.9500      0.5000      0.9500      0.9000      0.0100           0
TORD2           A                   250.1000      0.0000     50.0200    119.6233      1.0000      9.5520      0.9500      0.5000      0.9500      0.9000      0.0100           0
TORD2           A                   250.1000      0.0000     50.0200    119.6233      1.0000      1.3675      0.9500      0.5000      0.9500      0.9000      0.0100           0
TORD2           A                   250.1000      0.0000     50.0200    119.6233      1.0000      4.8481      0.9500      0.5000      0.9500      0.9000      0.0100           0
TORD2           A                   250.1000      0.0000     50.0200    119.6233      1.0000      2.8027      0.9500      0.5000      0.9500      0.9000      0.0100           0
TORD2           A                   250.1000      0.0000     50.0200    119.6233      1.0000      9.7572      0.9500      0.5000      0.9500      0.9000      0.0100           0
TORD2           A                   250.1000      0.0000     50.0200    119.6233      1.0000      0.9580      0.9500      0.5000      0.9500      0.9000      0.0100           0
TORD2           A                   250.1000      0.0000     50.0200    119.6233      1.0000      5.5558      0.9500      0.5000      0.9500      0.9000      0.0100           0
TORD2           A                   250.1000      0.0000     50.0200    119.6233      1.0000     11.1542      0.9500      0.5000      0.9500      0.9000      0.0100           0
TORD2           A                   250.1000      0.0000     50.0200    119.6233      1.0000      2.9220      0.9500      0.5000      0.9500      0.9000      0.0100           0
TORD2           A                   250.1000      0.0000     50.0200    119.6233      1.0000      1.2317      0.9500      0.5000      0.9500      0.9000      0.0100           0
TORD2           A                   250.1000      0.0000     50.0200    119.6233      1.0000      0.5418      0.9500      0.5000      0.9500      0.9000      0.0100           0
TORD7           A                  1200.0000      0.0000    240.0000    543.9623      1.0000      1.1306      0.9500      0.5000      0.9500      0.9000      0.0100           0
TORD7           A                  1200.0000      0.0000    240.0000    543.9623      1.0000      0.7385      0.9500      0.5000      0.9500      0.9000      0.0100           0
TORD7           A                  1200.0000      0.0000    240.0000    543.9623      1.0000      2.8480      0.9500      0.5000      0.9500      0.9000      0.0100           0
TORD7           A                  1200.0000      0.0000    240.0000    543.9623      1.0000      5.5143      0.9500      0.5000      0.9500      0.9000      0.0100           0
TORD7           A                  1200.0000      0.0000    240.0000    543.9623      1.0000      9.0171      0.9500      0.5000      0.9500      0.9000      0.0100           0
TORD2           A                   250.1000      0.0000     50.0200    119.6233      1.0000      9.9217      0.9500      0.5000      0.9500      0.9000      0.0100           0
TORD2           A                   250.1000      0.0000     50.0200    119.6233      1.0000      5.5505      0.9500      0.5000      0.9500      0.9000      0.0100           0
TORD2           A                   250.1000      0.0000     50.0200    119.6233      1.0000      2.9483      0.9500      0.5000      0.9500      0.9000      0.0100           0
TORD2           A                   250.1000      0.0000     50.0200    119.6233      1.0000      1.2994      0.9500      0.5000      0.9500      0.9000      0.0100           0
TORD2           A                   250.1000      0.0000     50.0200    119.6233      1.0000      0.4885      0.9500      0.5000      0.9500      0.9000      0.0100           0
TORD7           A                  1200.0000      0.0000    240.0000    543.9623      1.0000      1.0124      0.9500      0.5000      0.9500      0.9000      0.0100           0
TORD7           A                  1200.0000      0.0000    240.0000    543.9623      1.0000      2.7375      0.9500      0.5000      0.9500      0.9000      0.0100           0
TORD7           A                  1200.0000      0.0000    240.0000    543.9623      1.0000      6.1752      0.9500      0.5000      0.9500      0.9000      0.0100           0
TORD7           A                  1200.0000      0.0000    240.0000    543.9623      1.0000      9.0093      0.9500      0.5000      0.9500      0.9000      0.0100           0
TORD2           A                   250.1000      0.0000     50.0200    119.6233      1.0000      8.8628      0.9500      0.5000      0.9500      0.9000      0.0100           0
TORD2           A                   250.1000      0.0000     50.0200    119.6233      1.0000      3.1301      0.9500      0.5000      0.9500      0.9000      0.0100           0
TORD2           A                   250.1000      0.0000     50.0200    119.6233      1.0000      5.4410      0.9500      0.5000      0.9500      0.9000      0.0100           0
TORD2           A                   250.1000      0.0000     50.0200    119.6233      1.0000      1.3906      0.9500      0.5000      0.9500      0.9000      0.0100           0
TORD2           A                   250.1000      0.0000     50.0200    119.6233      1.0000      0.9767      0.9500      0.5000      0.9500      0.9000      0.0100           0
TORD2           A                   250.1000      0.0000     50.0200    119.6233      1.0000      2.9676      0.9500      0.5000      0.9500      0.9000      0.0100           0
TORD2           A                   250.1000      0.0000     50.0200    119.6233      1.0000      5.6144      0.9500      0.5000      0.9500      0.9000      0.0100           0
TORD2           A                   250.1000      0.0000     50.0200    119.6233      1.0000      9.5262      0.9500      0.5000      0.9500      0.9000      0.0100           0
TORD2           A                   250.1000      0.0000     50.0200    119.6233      1.0000      3.1392      0.9500      0.5000      0.9500      0.9000      0.0100           0
TORD2           A                   250.1000      0.0000     50.0200    119.6233      1.0000      0.9221      0.9500      0.5000      0.9500      0.9000      0.0100           0
TORD2           A                   250.1000      0.0000     50.0200    119.6233      1.0000      6.0348      0.9500      0.5000      0.9500      0.9000      0.0100           0
TORD2           A                   250.1000      0.0000     50.0200    119.6233      1.0000     10.0768      0.9500      0.5000      0.9500      0.9000      0.0100           0
TORD2           A                   250.1000      0.0000     50.0200    119.6233      1.0000      5.6341      0.9500      0.5000      0.9500      0.9000      0.0100           0
TORD2           A                   250.1000      0.0000     50.0200    119.6233      1.0000      1.2608      0.9500      0.5000      0.9500      0.9000      0.0100           0
TORD2           A                   250.1000      0.0000     50.0200    119.6233      1.0000      2.9812      0.9500      0.5000      0.9500      0.9000      0.0100           0
TORD2           A                   250.1000      0.0000     50.0200    119.6233      1.0000      0.5904      0.9500      0.5000      0.9500      0.9000      0.0100           0
TORD2           A                   250.1000      0.0000     50.0200    119.6233      1.0000      5.4843      0.9500      0.5000      0.9500      0.9000      0.0100           0
TORD2           A                   250.1000      0.0000     50.0200    119.6233      1.0000      2.9342      0.9500      0.5000      0.9500      0.9000      0.0100           0
TORD2           A                   250.1000      0.0000     50.0200    119.6233      1.0000      9.4816      0.9500      0.5000      0.9500      0.9000      0.0100           0
TORD2           A                   250.1000      0.0000     50.0200    119.6233      1.0000      1.2635      0.9500      0.5000      0.9500      0.9000      0.0100           0
TORD2           A                   250.1000      0.0000     50.0200    119.6233      1.0000     11.5345      0.9500      0.5000      0.9500      0.9000      0.0100           0
TORD2           A                   250.1000      0.0000     50.0200    119.6233      1.0000      5.5766      0.9500      0.5000      0.9500      0.9000      0.0100           0
TORD2           A                   250.1000      0.0000     50.0200    119.6233      1.0000      2.7585      0.9500      0.5000      0.9500      0.9000      0.0100           0
TORD2           A                   250.1000      0.0000     50.0200    119.6233      1.0000      1.0531      0.9500      0.5000      0.9500      0.9000      0.0100           0
TORD2           A                   250.1000      0.0000     50.0200    119.6233      1.0000      0.4686      0.9500      0.5000      0.9500      0.9000      0.0100           0
TORD2           A                   250.1000      0.0000     50.0200    119.6233      1.0000     11.6847      0.9500      0.5000      0.9500      0.9000      0.0100           0
TORD2           A                   250.1000      0.0000     50.0200    119.6233      1.0000      3.5170      0.9500      0.5000      0.9500      0.9000      0.0100           0
TORD2           A                   250.1000      0.0000     50.0200    119.6233      1.0000      1.3439      0.9500      0.5000      0.9500      0.9000      0.0100           0
TORD2           A                   250.1000      0.0000     50.0200    119.6233      1.0000     19.1622      0.9500      0.5000      0.9500      0.9000      0.0100           0
TORD2           A                   250.1000      0.0000     50.0200    119.6233      1.0000      4.7788      0.9500      0.5000      0.9500      0.9000      0.0100           0
TORD2           A                   250.1000      0.0000     50.0200    119.6233      1.0000      1.0963      0.9500      0.5000      0.9500      0.9000      0.0100           0
TORD2           A                   250.1000      0.0000     50.0200    119.6233      1.0000      2.7567      0.9500      0.5000      0.9500      0.9000      0.0100           0
TORD2           A                   250.1000      0.0000     50.0200    119.6233      1.0000      5.2106      0.9500      0.5000      0.9500      0.9000      0.0100           0
TORD2           A                   250.1000      0.0000     50.0200    119.6233      1.0000     10.9805      0.9500      0.5000      0.9500      0.9000      0.0100           0
TORD2           A                   250.1000      0.0000     50.0200    119.6233      1.0000      0.6036      0.9500      0.5000      0.9500      0.9000      0.0100           0
TORD2           A                   250.1000      0.0000     50.0200    119.6233      1.0000      1.2980      0.9500      0.5000      0.9500      0.9000      0.0100           0
TORD2           A                   250.1000      0.0000     50.0200    119.6233      1.0000      2.9110      0.9500      0.5000      0.9500      0.9000      0.0100           0
TORD2           A                   250.1000      0.0000     50.0200    119.6233      1.0000      5.5254      0.9500      0.5000      0.9500      0.9000      0.0100           0
TORD2           A                   250.1000      0.0000     50.0200    119.6233      1.0000      0.6424      0.9500      0.5000      0.9500      0.9000      0.0100           0
TORD2           A                   250.1000      0.0000     50.0200    119.6233      1.0000     10.5675      0.9500      0.5000      0.9500      0.9000      0.0100           0
TORD7           A                  1200.0000      0.0000    240.0000    543.9623      1.0000      1.1538      0.9500      0.5000      0.9500      0.9000      0.0100           0
TORD2           A                   250.1000      0.0000     50.0200    119.6233      1.0000      2.9360      0.9500      0.5000      0.9500      0.9000      0.0100           0
TORD2           A                   250.1000      0.0000     50.0200    119.6233      1.0000      1.2042      0.9500      0.5000      0.9500      0.9000      0.0100           0
TORD2           A                   250.1000      0.0000     50.0200    119.6233      1.0000      5.4680      0.9500      0.5000      0.9500      0.9000      0.0100           0
TORD2           A                   250.1000      0.0000     50.0200    119.6233      1.0000      0.6248      0.9500      0.5000      0.9500      0.9000      0.0100           0
TORD2           A                   250.1000      0.0000     50.0200    119.6233      1.0000     10.2631      0.9500      0.5000      0.9500      0.9000      0.0100           0
TORD2           A                   250.1000      0.0000     50.0200    119.6233      1.0000      5.4048      0.9500      0.5000      0.9500      0.9000      0.0100           0
TORD2           A                   250.1000      0.0000     50.0200    119.6233      1.0000     10.5452      0.9500      0.5000      0.9500      0.9000      0.0100           0
TORD2           A                   250.1000      0.0000     50.0200    119.6233      1.0000      1.3195      0.9500      0.5000      0.9500      0.9000      0.0100           0
TORD2           A                   250.1000      0.0000     50.0200    119.6233      1.0000      2.8734      0.9500      0.5000      0.9500      0.9000      0.0100           0
TORD2           A                   250.1000      0.0000     50.0200    119.6233      1.0000      2.9715      0.9500      0.5000      0.9500      0.9000      0.0100           0
TORD2           A                   250.1000      0.0000     50.0200    119.6233      1.0000      5.5364      0.9500      0.5000      0.9500      0.9000      0.0100           0
TORD2           A                   250.1000      0.0000     50.0200    119.6233      1.0000      1.0029      0.9500      0.5000      0.9500      0.9000      0.0100           0
TORD2           A                   250.1000      0.0000     50.0200    119.6233      1.0000      0.6321      0.9500      0.5000      0.9500      0.9000      0.0100           0
TORD2           A                   250.1000      0.0000     50.0200    119.6233      1.0000      7.3049      0.9500      0.5000      0.9500      0.9000      0.0100           0
TORD2           A                   250.1000      0.0000     50.0200    119.6233      1.0000      2.4773      0.9500      0.5000      0.9500      0.9000      0.0100           0
TORD2           A                   250.1000      0.0000     50.0200    119.6233      1.0000      0.5596      0.9500      0.5000      0.9500      0.9000      0.0100           0
TORD2           A                   250.1000      0.0000     50.0200    119.6233      1.0000      8.9708      0.9500      0.5000      0.9500      0.9000      0.0100           0
TORD2           A                   250.1000      0.0000     50.0200    119.6233      1.0000      1.3873      0.9500      0.5000      0.9500      0.9000      0.0100           0
TORD2           A                   250.1000      0.0000     50.0200    119.6233      1.0000      2.2430      0.9500      0.5000      0.9500      0.9000      0.0100           0
TORD2           A                   250.1000      0.0000     50.0200    119.6233      1.0000      0.9096      0.9500      0.5000      0.9500      0.9000      0.0100           0
TORD2           A                   250.1000      0.0000     50.0200    119.6233      1.0000      0.0650      0.9500      0.5000      0.9500      0.9000      0.0100           0
TORD2           A                   250.1000      0.0000     50.0200    119.6233      1.0000      2.8286      0.9500      0.5000      0.9500      0.9000      0.0100           0
TORD2           A                   250.1000      0.0000     50.0200    119.6233      1.0000      1.2737      0.9500      0.5000      0.9500      0.9000      0.0100           0
TORD2           A                   250.1000      0.0000     50.0200    119.6233      1.0000      5.4502      0.9500      0.5000      0.9500      0.9000      0.0100           0
TORD2           A                   250.1000      0.0000     50.0200    119.6233      1.0000     13.0611      0.9500      0.5000      0.9500      0.9000      0.0100           0
TORD2           A                   250.1000      0.0000     50.0200    119.6233      1.0000      0.8026      0.9500      0.5000      0.9500      0.9000      0.0100           0
TORD7           A                  1200.0000      0.0000    240.0000    543.9623      1.0000      0.0650      0.9500      0.5000      0.9500      0.9000      0.0100           0
TORD7           A                  1200.0000      0.0000    240.0000    543.9623      1.0000      0.6942      0.9500      0.5000      0.9500      0.9000      0.0100           0
TORD7           A                  1200.0000      0.0000    240.0000    543.9623      1.0000      3.0140      0.9500      0.5000      0.9500      0.9000      0.0100           0
TORD2           A                   250.1000      0.0000     50.0200    119.6233      1.0000      1.1815      0.9500      0.5000      0.9500      0.9000      0.0100           0
TORD2           A                   250.1000      0.0000     50.0200    119.6233      1.0000      2.7689      0.9500      0.5000      0.9500      0.9000      0.0100           0
[...]
TORD2           A                   250.1000      0.0000     50.0200    119.6233      1.0000      0.9453      0.9500      0.5000      0.9500      0.9000      0.0100           0
TORD2           A                   250.1000      0.0000     50.0200    119.6233      1.0000      5.2051      0.9500      0.5000      0.9500      0.9000      0.0100           0
TORD2           A                   250.1000      0.0000     50.0200    119.6233      1.0000      8.2192      0.9500      0.5000      0.9500      0.9000      0.0100           0
TORD2           A                   250.1000      0.0000     50.0200    119.6233      1.0000      0.5667      0.9500      0.5000      0.9500      0.9000      0.0100           0
TORD7           A                  1200.0000      0.0000    240.0000    543.9623      1.0000      0.4659      0.9500      0.5000      0.9500      0.9000      0.0100           0
TORD7           A                  1200.0000      0.0000    240.0000    543.9623      1.0000      0.9652      0.9500      0.5000      0.9500      0.9000      0.0100           0
TORD7           A                  1200.0000      0.0000    240.0000    543.9623      1.0000      2.6103      0.9500      0.5000      0.9500      0.9000      0.0100           0
TORD2           A                   250.1000      0.0000     50.0200    119.6233      1.0000      5.4070      0.9500      0.5000      0.9500      0.9000      0.0100           0
TORD2           A                   250.1000      0.0000     50.0200    119.6233      1.0000      2.9214      0.9500      0.5000      0.9500      0.9000      0.0100           0
TORD2           A                   250.1000      0.0000     50.0200    119.6233      1.0000      1.0774      0.9500      0.5000      0.9500      0.9000      0.0100           0
TORD2           A                   250.1000      0.0000     50.0200    119.6233      1.0000      0.5842      0.9500      0.5000      0.9500      0.9000      0.0100           0
TORD2           A                   250.1000      0.0000     50.0200    119.6233      1.0000      9.9335      0.9500      0.5000      0.9500      0.9000      0.0100           0
TORD7           A                  1200.0000      0.0000    240.0000    543.9623      1.0000      0.3699      0.9500      0.5000      0.9500      0.9000      0.0100           0
TORD7           A                  1200.0000      0.0000    240.0000    543.9623      1.0000      1.1576      0.9500      0.5000      0.9500      0.9000      0.0100           0
TORD7           A                  1200.0000      0.0000    240.0000    543.9623      1.0000      2.5359      0.9500      0.5000      0.9500      0.9000      0.0100           0
TORD7           A                  1200.0000      0.0000    240.0000    543.9623      1.0000      4.5127      0.9500      0.5000      0.9500      0.9000      0.0100           0
TORD2           A                   250.1000      0.0000     50.0200    119.6233      1.0000      0.7974      0.9500      0.5000      0.9500      0.9000      0.0100           0
TORD2           A                   250.1000      0.0000     50.0200    119.6233      1.0000      0.4778      0.9500      0.5000      0.9500      0.9000      0.0100           0
TORD2           A                   250.1000      0.0000     50.0200    119.6233      1.0000      2.4933      0.9500      0.5000      0.9500      0.9000      0.0100           0
TORD7           A                  1200.0000      0.0000    240.0000    543.9623      1.0000      0.3803      0.9500      0.5000      0.9500      0.9000      0.0100           0
TORD7           A                  1200.0000      0.0000    240.0000    543.9623      1.0000      0.7348      0.9500      0.5000      0.9500      0.9000      0.0100           0
TORD7           A                  1200.0000      0.0000    240.0000    543.9623      1.0000      0.3141      0.9500      0.5000      0.9500      0.9000      0.0100           0
TORD7           A                  1200.0000      0.0000    240.0000    543.9623      1.0000      0.8553      0.9500      0.5000      0.9500      0.9000      0.0100           0
TORD7           A                  1200.0000      0.0000    240.0000    543.9623      1.0000      2.5896      0.9500      0.5000      0.9500      0.9000      0.0100           0
TORD2           A                   250.1000      0.0000     50.0200    119.6233      1.0000      0.7167      0.9500      0.5000      0.9500      0.9000      0.0100           0
TORD2           A                   250.1000      0.0000     50.0200    119.6233      1.0000      0.9459      0.9500      0.5000      0.9500      0.9000      0.0100           0
TORD2           A                   250.1000      0.0000     50.0200    119.6233      1.0000      2.6059      0.9500      0.5000      0.9500      0.9000      0.0100           0
TORD7           A                  1200.0000      0.0000    240.0000    543.9623      1.0000      0.4411      0.9500      0.5000      0.9500      0.9000      0.0100           0
TORD7           A                  1200.0000      0.0000    240.0000    543.9623      1.0000      1.0251      0.9500      0.5000      0.9500      0.9000      0.0100           0
TORD7           A                  1200.0000      0.0000    240.0000    543.9623      1.0000      2.5883      0.9500      0.5000      0.9500      0.9000      0.0100           0
TORD7           A                  1200.0000      0.0000    240.0000    543.9623      1.0000      5.3480      0.9500      0.5000      0.9500      0.9000      0.0100           0
TORD7           A                  1200.0000      0.0000    240.0000    543.9623      1.0000      8.3592      0.9500      0.5000      0.9500      0.9000      0.0100           0
TORD2           A                   250.1000      0.0000     50.0200    119.6233      1.0000      2.8930      0.9500      0.5000      0.9500      0.9000      0.0100           0
TORD2           A                   250.1000      0.0000     50.0200    119.6233      1.0000      1.1290      0.9500      0.5000      0.9500      0.9000      0.0100           0
TORD2           A                   250.1000      0.0000     50.0200    119.6233      1.0000      0.5479      0.9500      0.5000      0.9500      0.9000      0.0100           0
TORD2           A                   250.1000      0.0000     50.0200    119.6233      1.0000      5.4725      0.9500      0.5000      0.9500      0.9000      0.0100           0
TORD2           A                   250.1000      0.0000     50.0200    119.6233      1.0000     10.6691      0.9500      0.5000      0.9500      0.9000      0.0100           0
TORD6           C                   350.0000      0.0000     70.0000    149.9057      1.0000     12.3396      0.9500      0.5000      0.9500      0.5000      0.0100           0
TORD6           C                   350.0000      0.0000     70.0000    149.9057      1.0000      5.6968      0.9500      0.5000      0.9500      0.5000      0.0100           0
TORD6           C                   350.0000      0.0000     70.0000    149.9057      1.0000      3.4350      0.9500      0.5000      0.9500      0.5000      0.0100           0
TORD9           C                   250.1000      0.0000     45.0180     82.1083      1.0000     10.9715      0.9500      0.5000      0.9500      0.5000      0.0100           0
TORD9           C                   250.1000      0.0000     45.0180     82.1083      1.0000      5.3886      0.9500      0.5000      0.9500      0.5000      0.0100           0
TORD9           C                   250.1000      0.0000     45.0180     82.1083      1.0000      3.5936      0.9500      0.5000      0.9500      0.5000      0.0100           0
TORD7           A                  1200.0000      0.0000    240.0000    543.9623      1.0000      0.6545      0.9500      0.5000      0.9500      0.9000      0.0100           0
TORD7           A                  1200.0000      0.0000    240.0000    543.9623      1.0000      0.8967      0.9500      0.5000      0.9500      0.9000      0.0100           0
TORD7           A                  1200.0000      0.0000    240.0000    543.9623      1.0000      2.0533      0.9500      0.5000      0.9500      0.9000      0.0100           0
TORD7           A                  1200.0000      0.0000    240.0000    543.9623      1.0000      4.8681      0.9500      0.5000      0.9500      0.9000      0.0100           0
TORD2           A                   250.1000      0.0000     50.0200    119.6233      1.0000      2.7157      0.9500      0.5000      0.9500      0.9000      0.0100           0
TORD2           A                   250.1000      0.0000     50.0200    119.6233      1.0000      1.1461      0.9500      0.5000      0.9500      0.9000      0.0100           0
TORD2           A                   250.1000      0.0000     50.0200    119.6233      1.0000      0.5384      0.9500      0.5000      0.9500      0.9000      0.0100           0
TORD2           A                   250.1000      0.0000     50.0200    119.6233      1.0000      5.2165      0.9500      0.5000      0.9500      0.9000      0.0100           0
TORD2           A                   250.1000      0.0000     50.0200    119.6233      1.0000      8.7549      0.9500      0.5000      0.9500      0.9000      0.0100           0
TORD6           C                   350.0000      0.0000     70.0000    149.9057      1.0000      5.0911      0.9500      0.5000      0.9500      0.5000      0.0100           0
TORD7           A                  1200.0000      0.0000    240.0000    543.9623      1.0000      0.3796      0.9500      0.5000      0.9500      0.9000      0.0100           0
TORD7           A                  1200.0000      0.0000    240.0000    543.9623      1.0000      0.9631      0.9500      0.5000      0.9500      0.9000      0.0100           0
TORD7           A                  1200.0000      0.0000    240.0000    543.9623      1.0000      5.0928      0.9500      0.5000      0.9500      0.9000      0.0100           0
TORD7           A                  1200.0000      0.0000    240.0000    543.9623      1.0000      2.4329      0.9500      0.5000      0.9500      0.9000      0.0100           0
TORD2           A                   250.1000      0.0000     50.0200    119.6233      1.0000      2.7167      0.9500      0.5000      0.9500      0.9000      0.0100           0
TORD2           A                   250.1000      0.0000     50.0200    119.6233      1.0000      1.0394      0.9500      0.5000      0.9500      0.9000      0.0100           0
TORD2           A                   250.1000      0.0000     50.0200    119.6233      1.0000      0.6727      0.9500      0.5000      0.9500      0.9000      0.0100           0
TORD2           A                   250.1000      0.0000     50.0200    119.6233      1.0000      4.9825      0.9500      0.5000      0.9500      0.9000      0.0100           0
TORD2           A                   250.1000      0.0000     50.0200    119.6233      1.0000      9.7305      0.9500      0.5000      0.9500      0.9000      0.0100           0
TORD9           C                   250.1000      0.0000     45.0180     82.1083      1.0000      5.1483      0.9500      0.5000      0.9500      0.5000      0.0100           0
TORD6           C                   350.0000      0.0000     70.0000    149.9057      1.0000      1.2178      0.9500      0.5000      0.9500      0.5000      0.0100           0
TORD6           C                   350.0000      0.0000     70.0000    149.9057      1.0000      5.2733      0.9500      0.5000      0.9500      0.5000      0.0100           0
TORD6           C                   350.0000      0.0000     70.0000    149.9057      1.0000     11.9286      0.9500      0.5000      0.9500      0.5000      0.0100           0
TORD7           A                  1200.0000      0.0000    240.0000    543.9623      1.0000      1.0725      0.9500      0.5000      0.9500      0.9000      0.0100           0
TORD7           A                  1200.0000      0.0000    240.0000    543.9623      1.0000      2.6272      0.9500      0.5000      0.9500      0.9000      0.0100           0
TORD7           A                  1200.0000      0.0000    240.0000    543.9623      1.0000      0.5627      0.9500      0.5000      0.9500      0.9000      0.0100           0
TORD7           A                  1200.0000      0.0000    240.0000    543.9623      1.0000      4.7521      0.9500      0.5000      0.9500      0.9000      0.0100           0
TORD7           A                  1200.0000      0.0000    240.0000    543.9623      1.0000      8.6425      0.9500      0.5000      0.9500      0.9000      0.0100           0
TORD2           A                   250.1000      0.0000     50.0200    119.6233      1.0000      2.8270      0.9500      0.5000      0.9500      0.9000      0.0100           0
TORD2           A                   250.1000      0.0000     50.0200    119.6233      1.0000      1.2240      0.9500      0.5000      0.9500      0.9000      0.0100           0
TORD2           A                   250.1000      0.0000     50.0200    119.6233      1.0000      0.6112      0.9500      0.5000      0.9500      0.9000      0.0100           0
TORD2           A                   250.1000      0.0000     50.0200    119.6233      1.0000      5.3381      0.9500      0.5000      0.9500      0.9000      0.0100           0
TORD2           A                   250.1000      0.0000     50.0200    119.6233      1.0000      9.6791      0.9500      0.5000      0.9500      0.9000      0.0100           0
TORD6           C                   350.0000      0.0000     70.0000    149.9057      1.0000     11.5625      0.9500      0.5000      0.9500      0.5000      0.0100           0
TORD6           C                   350.0000      0.0000     70.0000    149.9057      1.0000      2.9903      0.9500      0.5000      0.9500      0.5000      0.0100           0
TORD6           C                   350.0000      0.0000     70.0000    149.9057      1.0000      5.7407      0.9500      0.5000      0.9500      0.5000      0.0100           0
TORD9           C                   250.1000      0.0000     45.0180     82.1083      1.0000      6.7129      0.9500      0.5000      0.9500      0.5000      0.0100           0
TORD9           C                   250.1000      0.0000     45.0180     82.1083      1.0000      8.5034      0.9500      0.5000      0.9500      0.5000      0.0100           0
TORD2           A                   250.1000      0.0000     50.0200    119.6233      1.0000      1.2418      0.9500      0.5000      0.9500      0.9000      0.0100           0
TORD2           A                   250.1000      0.0000     50.0200    119.6233      1.0000      2.9170      0.9500      0.5000      0.9500      0.9000      0.0100           0
TORD2           A                   250.1000      0.0000     50.0200    119.6233      1.0000      5.1734      0.9500      0.5000      0.9500      0.9000      0.0100           0
TORD2           A                   250.1000      0.0000     50.0200    119.6233      1.0000      8.6614      0.9500      0.5000      0.9500      0.9000      0.0100           0
TORD2           A                   250.1000      0.0000     50.0200    119.6233      1.0000      0.5625      0.9500      0.5000      0.9500      0.9000      0.0100           0
TORD7           A                  1200.0000      0.0000    240.0000    543.9623      1.0000      1.0078      0.9500      0.5000      0.9500      0.9000      0.0100           0
TORD7           A                  1200.0000      0.0000    240.0000    543.9623      1.0000      0.3894      0.9500      0.5000      0.9500      0.9000      0.0100           0
TORD7           A                  1200.0000      0.0000    240.0000    543.9623      1.0000      2.5891      0.9500      0.5000      0.9500      0.9000      0.0100           0
TORD7           A                  1200.0000      0.0000    240.0000    543.9623      1.0000      5.0117      0.9500      0.5000      0.9500      0.9000      0.0100           0
TORD6           C                   350.0000      0.0000     70.0000    149.9057      1.0000      4.3425      0.9500      0.5000      0.9500      0.5000      0.0100           0
TORD2           A                   250.1000      0.0000     50.0200    119.6233      1.0000      2.7883      0.9500      0.5000      0.9500      0.9000      0.0100           0
TORD2           A                   250.1000      0.0000     50.0200    119.6233      1.0000      1.2294      0.9500      0.5000      0.9500      0.9000      0.0100           0
TORD2           A                   250.1000      0.0000     50.0200    119.6233      1.0000      5.3901      0.9500      0.5000      0.9500      0.9000      0.0100           0
TORD2           A                   250.1000      0.0000     50.0200    119.6233      1.0000      9.1123      0.9500      0.5000      0.9500      0.9000      0.0100           0
TORD2           A                   250.1000      0.0000     50.0200    119.6233      1.0000      0.7485      0.9500      0.5000      0.9500      0.9000      0.0100           0
TORD7           A                  1200.0000      0.0000    240.0000    543.9623      1.0000      0.5138      0.9500      0.5000      0.9500      0.9000      0.0100           0
TORD7           A                  1200.0000      0.0000    240.0000    543.9623      1.0000      0.9986      0.9500      0.5000      0.9500      0.9000      0.0100           0
TORD7           A                  1200.0000      0.0000    240.0000    543.9623      1.0000      2.2815      0.9500      0.5000      0.9500      0.9000      0.0100           0
TORD7           A                  1200.0000      0.0000    240.0000    543.9623      1.0000      4.6231      0.9500      0.5000      0.9500      0.9000      0.0100           0
TORD7           A                  1200.0000      0.0000    240.0000    543.9623      1.0000      8.7096      0.9500      0.5000      0.9500      0.9000      0.0100           0
TORD6           C                   350.0000      0.0000     70.0000    149.9057      1.0000      7.0518      0.9500      0.5000      0.9500      0.5000      0.0100           0
TORD6           C                   350.0000      0.0000     70.0000    149.9057      1.0000      6.1667      0.9500      0.5000      0.9500      0.5000      0.0100           0
TORD2           A                   250.1000      0.0000     50.0200    119.6233      1.0000      2.5296      0.9500      0.5000      0.9500      0.9000      0.0100           0
TORD2           A                   250.1000      0.0000     50.0200    119.6233      1.0000      5.4462      0.9500      0.5000      0.9500      0.9000      0.0100           0
TORD2           A                   250.1000      0.0000     50.0200    119.6233      1.0000      7.5367      0.9500      0.5000      0.9500      0.9000      0.0100           0
TORD2           A                   250.1000      0.0000     50.0200    119.6233      1.0000      1.0819      0.9500      0.5000      0.9500      0.9000      0.0100           0
TORD2           A                   250.1000      0.0000     50.0200    119.6233      1.0000      0.3936      0.9500      0.5000      0.9500      0.9000      0.0100           0
TORD7           A                  1200.0000      0.0000    240.0000    543.9623      1.0000      0.9746      0.9500      0.5000      0.9500      0.9000      0.0100           0
TORD7           A                  1200.0000      0.0000    240.0000    543.9623      1.0000      2.4916      0.9500      0.5000      0.9500      0.9000      0.0100           0
TORD7           A                  1200.0000      0.0000    240.0000    543.9623      1.0000      4.9254      0.9500      0.5000      0.9500      0.9000      0.0100           0
TORD7           A                  1200.0000      0.0000    240.0000    543.9623      1.0000      0.4333      0.9500      0.5000      0.9500      0.9000      0.0100           0
