print.prt: written by SWAT+ editor v3.0.1 on 2024-10-31 16:57 for SWAT+ rev.61.0.1
nyskip      day_start  yrc_start  day_end   yrc_end   interval  
2           0         0         0         0         1         
aa_int_cnt  
0           
csvout        dbout         cdfout        
n             n             n             
crop_yld      mgtout        hydcon        fdcout        
b             n             n             n             
objects                  daily       monthly        yearly         avann  
basin_wb                     y             y             y             y  
basin_nb                     y             y             y             y  
basin_ls                     n             y             y             y  
basin_pw                     n             y             y             y  
basin_aqu                    n             y             y             y  
basin_res                    n             y             y             y  
basin_cha                    n             y             y             y  
basin_sd_cha                 y             y             y             y  
basin_psc                    n             y             y             y  
region_wb                    n             y             y             y  
region_nb                    n             y             y             y  
region_ls                    n             y             y             y  
region_pw                    n             y             y             y  
region_aqu                   n             y             y             y  
region_res                   n             y             y             y  
region_sd_cha                n             y             y             y  
region_psc                   n             y             y             y  
water_allo                   n             y             y             y  
lsunit_wb                    n             y             y             y  
lsunit_nb                    n             y             y             y  
lsunit_ls                    n             y             y             y  
lsunit_pw                    n             y             y             y  
hru_wb                       n             y             y             y  
hru_nb                       n             y             y             y  
hru_ls                       n             y             y             y  
hru_pw                       n             y             y             y  
hru-lte_wb                   n             y             y             y  
hru-lte_nb                   n             y             y             y  
hru-lte_ls                   n             y             y             y  
hru-lte_pw                   n             y             y             y  
channel                      n             y             y             y  
channel_sd                   y             y             y             y  
aquifer                      n             y             y             y  
reservoir                    n             y             y             y  
recall                       n             y             y             y  
hyd                          n             y             y             y  
ru                           n             y             y             y  
pest                         n             y             y             y  
basin_salt                   n             y             n             n  
hru_salt                     n             y             n             n  
ru_salt                      n             y             n             n  
aqu_salt                     n             y             n             n  
channel_salt                 n             y             n             n  
res_salt                     n             y             n             n  
wetland_salt                 n             y             n             n  
basin_cs                     n             y             n             n  
hru_cs                       n             y             n             n  
ru_cs                        n             y             n             n  
aqu_cs                       n             y             n             n  
channel_cs                   n             y             n             n  
res_cs                       n             y             n             n  
wetland_cs                   n             y             n             n  
basin_salt                   n             y             n             n  
hru_salt                     n             y             n             n  
ru_salt                      n             y             n             n  
aqu_salt                     n             y             n             n  
channel_salt                 n             y             n             n  
res_salt                     n             y             n             n  
wetland_salt                 n             y             n             n  
basin_cs                     n             y             n             n  
hru_cs                       n             y             n             n  
ru_cs                        n             y             n             n  
aqu_cs                       n             y             n             n  
channel_cs                   n             y             n             n  
res_cs                       n             y             n             n  
wetland_cs                   n             y             n             n  
basin_salt                   n             y             n             n  
hru_salt                     n             y             n             n  
ru_salt                      n             y             n             n  
aqu_salt                     n             y             n             n  
channel_salt                 n             y             n             n  
res_salt                     n             y             n             n  
wetland_salt                 n             y             n             n  
basin_cs                     n             y             n             n  
hru_cs                       n             y             n             n  
ru_cs                        n             y             n             n  
aqu_cs                       n             y             n             n  
channel_cs                   n             y             n             n  
res_cs                       n             y             n             n  
wetland_cs                   n             y             n             n  
